<?xml version="1.0" encoding="UTF-8"?>

<!-- generated on 2024-04-23 04:12:26 by Eclipse SUMO netedit Version 1.19.0
-->

<routes xmlns:xsi="http://www.w3.org/2001/XMLSchema-instance" xsi:noNamespaceSchemaLocation="http://sumo.dlr.de/xsd/routes_file.xsd">
    <!-- Vehicles, persons and containers (sorted by depart) -->
    <trip id="t_0" depart="0.00" from="A2B2" to="B1C1" via="B2B1 B1C1 C1C2 C2B2 B2A2 A2A1 A1B1"/>
    <trip id="t_1" depart="0.00" from="C2B2" to="B1B2" via="B2B1 B1A1 A1A2 A2B2"/>
</routes>
